data/ENWL/enwl_4wire/network_22/Feeder_5/Loads.txt
! Imported from Loads.txt, with modified neutral terminal
! ---------------------------------------------------------------------------
New Load.LOAD1 Phases=1 Bus1=185.3.4 kV=0.23 kW=1.968  PF=0.95
New Load.LOAD2 Phases=1 Bus1=187.1.4 kV=0.23 kW=0.306  PF=0.95
New Load.LOAD3 Phases=1 Bus1=194.1.4 kV=0.23 kW=2.94  PF=0.95
New Load.LOAD4 Phases=1 Bus1=197.3.4 kV=0.23 kW=0.324  PF=0.95
New Load.LOAD5 Phases=1 Bus1=198.1.4 kV=0.23 kW=1.332  PF=0.95
New Load.LOAD6 Phases=1 Bus1=221.3.4 kV=0.23 kW=3.0540000000000003  PF=0.95
New Load.LOAD7 Phases=1 Bus1=239.1.4 kV=0.23 kW=2.0580000000000003  PF=0.95
New Load.LOAD8 Phases=1 Bus1=247.1.4 kV=0.23 kW=0.29400000000000004  PF=0.95
New Load.LOAD9 Phases=1 Bus1=248.2.4 kV=0.23 kW=0.312  PF=0.95
New Load.LOAD10 Phases=1 Bus1=255.2.4 kV=0.23 kW=0.27  PF=0.95
New Load.LOAD11 Phases=1 Bus1=261.2.4 kV=0.23 kW=0.33  PF=0.95
New Load.LOAD12 Phases=1 Bus1=276.1.4 kV=0.23 kW=0.33  PF=0.95
New Load.LOAD13 Phases=1 Bus1=281.1.4 kV=0.23 kW=0.246  PF=0.95
New Load.LOAD14 Phases=1 Bus1=424.1.4 kV=0.23 kW=2.04  PF=0.95
New Load.LOAD15 Phases=1 Bus1=433.1.4 kV=0.23 kW=0.8280000000000001  PF=0.95
New Load.LOAD16 Phases=1 Bus1=435.2.4 kV=0.23 kW=0.11399999999999999  PF=0.95
New Load.LOAD17 Phases=1 Bus1=443.2.4 kV=0.23 kW=0.28800000000000003  PF=0.95
New Load.LOAD18 Phases=1 Bus1=454.2.4 kV=0.23 kW=0.324  PF=0.95
New Load.LOAD19 Phases=1 Bus1=460.2.4 kV=0.23 kW=1.944  PF=0.95
New Load.LOAD20 Phases=1 Bus1=466.1.4 kV=0.23 kW=0.264  PF=0.95
New Load.LOAD21 Phases=1 Bus1=493.3.4 kV=0.23 kW=0.336  PF=0.95
New Load.LOAD22 Phases=1 Bus1=501.1.4 kV=0.23 kW=0.966  PF=0.95
New Load.LOAD23 Phases=1 Bus1=524.2.4 kV=0.23 kW=0.246  PF=0.95
New Load.LOAD24 Phases=1 Bus1=539.2.4 kV=0.23 kW=1.956  PF=0.95
New Load.LOAD25 Phases=1 Bus1=560.1.4 kV=0.23 kW=0.29400000000000004  PF=0.95
New Load.LOAD26 Phases=1 Bus1=586.3.4 kV=0.23 kW=0.336  PF=0.95
New Load.LOAD27 Phases=1 Bus1=604.3.4 kV=0.23 kW=0.27  PF=0.95
New Load.LOAD28 Phases=1 Bus1=615.1.4 kV=0.23 kW=0.276  PF=0.95
New Load.LOAD29 Phases=1 Bus1=619.1.4 kV=0.23 kW=0.34800000000000003  PF=0.95
! ---------------------------------------------------------------------------